MODEL 1
REMARK VINA RESULT:   -14.022      0.000      0.000
REMARK INTER + INTRA:         -19.143
REMARK INTER:                 -18.693
REMARK INTRA:                  -0.450
REMARK UNBOUND:                 0.617
REMARK Flexibility Score: inf
REMARK Active torsions [ 7 ] -> [ 7 ]
ROOT
ATOM      1  C1  LIG L   1      15.840  54.726  12.389  1.00  0.00     0.038 A 
ATOM      2  C2  LIG L   1      16.911  54.569  11.398  1.00  0.00    -0.029 A 
ATOM      3  C3  LIG L   1      17.895  53.548  11.619  1.00  0.00     0.007 A 
ATOM      4  C4  LIG L   1      17.826  52.700  12.784  1.00  0.00     0.024 A 
ATOM      5  C5  LIG L   1      16.785  52.848  13.746  1.00  0.00     0.035 A 
ATOM      6  C6  LIG L   1      15.786  53.883  13.528  1.00  0.00     0.047 A 
ATOM      7  C7  LIG L   1      17.031  55.445  10.129  1.00  0.00     0.045 C 
ENDROOT
BRANCH    1    8
ATOM      8  N1  LIG L   1      14.855  55.704  12.230  1.00  0.00    -0.283 N 
ATOM      9  H1  LIG L   1      13.975  55.453  11.865  1.00  0.00     0.155 HD
BRANCH    8   10
ATOM     10  C8  LIG L   1      15.103  57.022  12.580  1.00  0.00     0.220 A 
ATOM     11  C9  LIG L   1      14.272  59.249  12.732  1.00  0.00     0.077 A 
ATOM     12 C10  LIG L   1      15.529  59.709  13.247  1.00  0.00     0.048 A 
ATOM     13  N2  LIG L   1      14.107  57.918  12.419  1.00  0.00    -0.214 NA
ATOM     14 C11  LIG L   1      16.554  58.750  13.406  1.00  0.00     0.116 A 
ATOM     15  N3  LIG L   1      16.328  57.432  13.072  1.00  0.00    -0.223 NA
BRANCH   11   16
ATOM     16 C12  LIG L   1      13.092  60.143  12.504  1.00  0.00     0.019 A 
ATOM     17 C13  LIG L   1      11.822  62.297  12.834  1.00  0.00     0.020 A 
ATOM     18 C14  LIG L   1      12.982  61.474  13.086  1.00  0.00     0.013 A 
ATOM     19 C15  LIG L   1      10.779  61.767  11.996  1.00  0.00     0.111 A 
ATOM     20  N4  LIG L   1      10.897  60.485  11.439  1.00  0.00    -0.263 NA
ATOM     21 C16  LIG L   1      12.002  59.671  11.663  1.00  0.00     0.120 A 
ENDBRANCH   11   16
ENDBRANCH    8   10
ENDBRANCH    1    8
BRANCH    5   22
ATOM     22  N5  LIG L   1      16.777  51.957  14.879  1.00  0.00    -0.281 N 
ATOM     23 C17  LIG L   1      15.761  51.759  15.800  1.00  0.00     0.248 C 
ATOM     24  H2  LIG L   1      17.594  51.424  15.016  1.00  0.00     0.155 HD
ATOM     25  O1  LIG L   1      14.780  52.479  15.912  1.00  0.00    -0.270 OA
BRANCH   23   26
ATOM     26 C18  LIG L   1      15.856  50.602  16.742  1.00  0.00     0.037 A 
ATOM     27 C19  LIG L   1      17.120  49.890  16.947  1.00  0.00     0.013 A 
ATOM     28 C20  LIG L   1      14.668  50.177  17.451  1.00  0.00     0.013 A 
ATOM     29 C21  LIG L   1      17.180  48.767  17.848  1.00  0.00     0.002 A 
ATOM     30 C22  LIG L   1      14.730  49.076  18.334  1.00  0.00     0.002 A 
ATOM     31 C23  LIG L   1      15.970  48.349  18.553  1.00  0.00    -0.064 A 
BRANCH   31   32
ATOM     32 C24  LIG L   1      15.936  47.148  19.517  1.00  0.00    -0.043 C 
BRANCH   32   33
ATOM     33  N6  LIG L   1      17.199  46.818  20.242  1.00  0.00     0.380 N 
ATOM     34 C25  LIG L   1      17.465  47.829  21.331  1.00  0.00    -0.097 C 
ATOM     35 C26  LIG L   1      17.170  45.405  20.832  1.00  0.00    -0.097 C 
ATOM     36  H3  LIG L   1      17.956  46.854  19.559  1.00  0.00    -0.082 HD
ATOM     37 C27  LIG L   1      18.787  47.515  22.085  1.00  0.00    -0.098 C 
ATOM     38 C28  LIG L   1      18.508  45.068  21.568  1.00  0.00    -0.098 C 
ATOM     39  N7  LIG L   1      18.760  46.107  22.663  1.00  0.00     0.375 N 
ATOM     40 C29  LIG L   1      19.987  45.760  23.395  1.00  0.00    -0.096 C 
ATOM     41  H4  LIG L   1      17.989  46.096  23.331  1.00  0.00    -0.082 HD
ENDBRANCH   32   33
ENDBRANCH   31   32
ENDBRANCH   23   26
ENDBRANCH    5   22
TORSDOF 7
ENDMDL
MODEL 2
REMARK VINA RESULT:   -11.986      2.978     12.409
REMARK INTER + INTRA:         -16.274
REMARK INTER:                 -15.308
REMARK INTRA:                  -0.966
REMARK UNBOUND:                 0.617
REMARK Flexibility Score: inf
REMARK Active torsions [ 7 ] -> [ 7 ]
ROOT
ATOM      1  C1  LIG L   1      16.854  48.700  17.624  1.00  0.00     0.038 A 
ATOM      2  C2  LIG L   1      15.539  48.411  18.209  1.00  0.00    -0.029 A 
ATOM      3  C3  LIG L   1      14.468  49.332  17.957  1.00  0.00     0.007 A 
ATOM      4  C4  LIG L   1      14.683  50.507  17.149  1.00  0.00     0.024 A 
ATOM      5  C5  LIG L   1      15.957  50.789  16.577  1.00  0.00     0.035 A 
ATOM      6  C6  LIG L   1      17.048  49.860  16.830  1.00  0.00     0.047 A 
ATOM      7  C7  LIG L   1      15.250  47.164  19.077  1.00  0.00     0.045 C 
ENDROOT
BRANCH    1    8
ATOM      8  N1  LIG L   1      17.936  47.842  17.835  1.00  0.00    -0.283 N 
ATOM      9  H1  LIG L   1      17.997  47.002  17.325  1.00  0.00     0.155 HD
BRANCH    8   10
ATOM     10  C8  LIG L   1      18.923  48.161  18.754  1.00  0.00     0.220 A 
ATOM     11  C9  LIG L   1      20.932  49.358  19.210  1.00  0.00     0.077 A 
ATOM     12 C10  LIG L   1      20.966  48.839  20.547  1.00  0.00     0.048 A 
ATOM     13  N2  LIG L   1      19.907  48.998  18.364  1.00  0.00    -0.214 NA
ATOM     14 C11  LIG L   1      19.923  47.966  20.931  1.00  0.00     0.116 A 
ATOM     15  N3  LIG L   1      18.927  47.642  20.036  1.00  0.00    -0.223 NA
BRANCH   11   16
ATOM     16 C12  LIG L   1      21.964  50.289  18.655  1.00  0.00     0.019 A 
ATOM     17 C13  LIG L   1      24.184  50.769  17.558  1.00  0.00     0.020 A 
ATOM     18 C14  LIG L   1      23.221  49.827  18.080  1.00  0.00     0.013 A 
ATOM     19 C15  LIG L   1      23.871  52.172  17.622  1.00  0.00     0.111 A 
ATOM     20  N4  LIG L   1      22.657  52.605  18.176  1.00  0.00    -0.263 NA
ATOM     21 C16  LIG L   1      21.710  51.722  18.685  1.00  0.00     0.120 A 
ENDBRANCH   11   16
ENDBRANCH    8   10
ENDBRANCH    1    8
BRANCH    5   22
ATOM     22  N5  LIG L   1      16.093  51.978  15.773  1.00  0.00    -0.281 N 
ATOM     23 C17  LIG L   1      15.597  52.206  14.499  1.00  0.00     0.248 C 
ATOM     24  H2  LIG L   1      16.599  52.718  16.178  1.00  0.00     0.155 HD
ATOM     25  O1  LIG L   1      15.141  51.338  13.769  1.00  0.00    -0.270 OA
BRANCH   23   26
ATOM     26 C18  LIG L   1      15.625  53.596  13.952  1.00  0.00     0.037 A 
ATOM     27 C19  LIG L   1      16.890  54.297  13.720  1.00  0.00     0.013 A 
ATOM     28 C20  LIG L   1      14.372  54.259  13.660  1.00  0.00     0.013 A 
ATOM     29 C21  LIG L   1      16.888  55.644  13.207  1.00  0.00     0.002 A 
ATOM     30 C22  LIG L   1      14.373  55.580  13.156  1.00  0.00     0.002 A 
ATOM     31 C23  LIG L   1      15.614  56.299  12.921  1.00  0.00    -0.064 A 
BRANCH   31   32
ATOM     32 C24  LIG L   1      15.516  57.742  12.392  1.00  0.00    -0.043 C 
BRANCH   32   33
ATOM     33  N6  LIG L   1      14.243  58.480  12.649  1.00  0.00     0.380 N 
ATOM     34 C25  LIG L   1      14.530  59.871  13.160  1.00  0.00    -0.097 C 
ATOM     35 C26  LIG L   1      13.358  58.550  11.402  1.00  0.00    -0.097 C 
ATOM     36  H3  LIG L   1      13.733  57.959  13.362  1.00  0.00    -0.082 HD
ATOM     37 C27  LIG L   1      13.217  60.649  13.454  1.00  0.00    -0.098 C 
ATOM     38 C28  LIG L   1      12.021  59.305  11.694  1.00  0.00    -0.098 C 
ATOM     39  N7  LIG L   1      12.334  60.709  12.215  1.00  0.00     0.375 N 
ATOM     40 C29  LIG L   1      11.079  61.442  12.436  1.00  0.00    -0.096 C 
ATOM     41  H4  LIG L   1      12.871  61.223  11.516  1.00  0.00    -0.082 HD
ENDBRANCH   32   33
ENDBRANCH   31   32
ENDBRANCH   23   26
ENDBRANCH    5   22
TORSDOF 7
ENDMDL
MODEL 3
REMARK VINA RESULT:   -11.894      3.794     12.337
REMARK INTER + INTRA:         -16.144
REMARK INTER:                 -15.876
REMARK INTRA:                  -0.268
REMARK UNBOUND:                 0.617
REMARK Flexibility Score: inf
REMARK Active torsions [ 7 ] -> [ 7 ]
ROOT
ATOM      1  C1  LIG L   1      18.130  48.609  18.871  1.00  0.00     0.038 A 
ATOM      2  C2  LIG L   1      17.121  47.551  19.002  1.00  0.00    -0.029 A 
ATOM      3  C3  LIG L   1      16.004  47.565  18.101  1.00  0.00     0.007 A 
ATOM      4  C4  LIG L   1      15.882  48.592  17.096  1.00  0.00     0.024 A 
ATOM      5  C5  LIG L   1      16.862  49.618  16.964  1.00  0.00     0.035 A 
ATOM      6  C6  LIG L   1      17.995  49.611  17.876  1.00  0.00     0.047 A 
ATOM      7  C7  LIG L   1      17.203  46.422  20.056  1.00  0.00     0.045 C 
ENDROOT
BRANCH    1    8
ATOM      8  N1  LIG L   1      19.238  48.650  19.720  1.00  0.00    -0.283 N 
ATOM      9  H1  LIG L   1      19.124  48.934  20.656  1.00  0.00     0.155 HD
BRANCH    8   10
ATOM     10  C8  LIG L   1      20.497  48.296  19.260  1.00  0.00     0.220 A 
ATOM     11  C9  LIG L   1      22.644  49.020  18.525  1.00  0.00     0.077 A 
ATOM     12 C10  LIG L   1      23.054  47.663  18.309  1.00  0.00     0.048 A 
ATOM     13  N2  LIG L   1      21.377  49.284  18.995  1.00  0.00    -0.214 NA
ATOM     14 C11  LIG L   1      22.114  46.647  18.596  1.00  0.00     0.116 A 
ATOM     15  N3  LIG L   1      20.860  46.976  19.062  1.00  0.00    -0.223 NA
BRANCH   11   16
ATOM     16 C12  LIG L   1      23.523  50.204  18.265  1.00  0.00     0.019 A 
ATOM     17 C13  LIG L   1      25.040  51.583  16.796  1.00  0.00     0.020 A 
ATOM     18 C14  LIG L   1      24.203  50.422  16.995  1.00  0.00     0.013 A 
ATOM     19 C15  LIG L   1      25.187  52.513  17.884  1.00  0.00     0.111 A 
ATOM     20  N4  LIG L   1      24.526  52.293  19.102  1.00  0.00    -0.263 NA
ATOM     21 C16  LIG L   1      23.712  51.186  19.322  1.00  0.00     0.120 A 
ENDBRANCH   11   16
ENDBRANCH    8   10
ENDBRANCH    1    8
BRANCH    5   22
ATOM     22  N5  LIG L   1      16.676  50.605  15.929  1.00  0.00    -0.281 N 
ATOM     23 C17  LIG L   1      15.711  51.596  15.860  1.00  0.00     0.248 C 
ATOM     24  H2  LIG L   1      17.314  50.570  15.180  1.00  0.00     0.155 HD
ATOM     25  O1  LIG L   1      14.723  51.649  16.578  1.00  0.00    -0.270 OA
BRANCH   23   26
ATOM     26 C18  LIG L   1      15.855  52.675  14.837  1.00  0.00     0.037 A 
ATOM     27 C19  LIG L   1      14.804  53.675  14.633  1.00  0.00     0.013 A 
ATOM     28 C20  LIG L   1      17.056  52.718  14.029  1.00  0.00     0.013 A 
ATOM     29 C21  LIG L   1      14.962  54.696  13.627  1.00  0.00     0.002 A 
ATOM     30 C22  LIG L   1      17.207  53.721  13.045  1.00  0.00     0.002 A 
ATOM     31 C23  LIG L   1      16.178  54.722  12.818  1.00  0.00    -0.064 A 
BRANCH   31   32
ATOM     32 C24  LIG L   1      16.422  55.762  11.708  1.00  0.00    -0.043 C 
BRANCH   32   33
ATOM     33  N6  LIG L   1      15.790  57.104  11.878  1.00  0.00     0.380 N 
ATOM     34 C25  LIG L   1      14.295  56.971  12.035  1.00  0.00    -0.097 C 
ATOM     35 C26  LIG L   1      16.378  57.869  13.067  1.00  0.00    -0.097 C 
ATOM     36  H3  LIG L   1      15.992  57.640  11.034  1.00  0.00    -0.082 HD
ATOM     37 C27  LIG L   1      13.615  58.360  12.192  1.00  0.00    -0.098 C 
ATOM     38 C28  LIG L   1      15.721  59.280  13.216  1.00  0.00    -0.098 C 
ATOM     39  N7  LIG L   1      14.208  59.122  13.369  1.00  0.00     0.375 N 
ATOM     40 C29  LIG L   1      13.594  60.443  13.568  1.00  0.00    -0.096 C 
ATOM     41  H4  LIG L   1      14.002  58.560  14.195  1.00  0.00    -0.082 HD
ENDBRANCH   32   33
ENDBRANCH   31   32
ENDBRANCH   23   26
ENDBRANCH    5   22
TORSDOF 7
ENDMDL
MODEL 4
REMARK VINA RESULT:   -11.840      1.262      1.815
REMARK INTER + INTRA:         -16.068
REMARK INTER:                 -16.579
REMARK INTRA:                   0.512
REMARK UNBOUND:                 0.617
REMARK Flexibility Score: inf
REMARK Active torsions [ 7 ] -> [ 7 ]
ROOT
ATOM      1  C1  LIG L   1      15.771  54.743  12.555  1.00  0.00     0.038 A 
ATOM      2  C2  LIG L   1      16.855  54.533  11.587  1.00  0.00    -0.029 A 
ATOM      3  C3  LIG L   1      17.803  53.487  11.847  1.00  0.00     0.007 A 
ATOM      4  C4  LIG L   1      17.687  52.667  13.027  1.00  0.00     0.024 A 
ATOM      5  C5  LIG L   1      16.634  52.865  13.967  1.00  0.00     0.035 A 
ATOM      6  C6  LIG L   1      15.671  53.926  13.710  1.00  0.00     0.047 A 
ATOM      7  C7  LIG L   1      17.024  55.378  10.303  1.00  0.00     0.045 C 
ENDROOT
BRANCH    1    8
ATOM      8  N1  LIG L   1      14.820  55.746  12.358  1.00  0.00    -0.283 N 
ATOM      9  H1  LIG L   1      13.936  55.514  11.990  1.00  0.00     0.155 HD
BRANCH    8   10
ATOM     10  C8  LIG L   1      15.105  57.065  12.674  1.00  0.00     0.220 A 
ATOM     11  C9  LIG L   1      14.343  59.320  12.761  1.00  0.00     0.077 A 
ATOM     12 C10  LIG L   1      15.610  59.755  13.273  1.00  0.00     0.048 A 
ATOM     13  N2  LIG L   1      14.139  57.987  12.483  1.00  0.00    -0.214 NA
ATOM     14 C11  LIG L   1      16.604  58.769  13.466  1.00  0.00     0.116 A 
ATOM     15  N3  LIG L   1      16.339  57.451  13.165  1.00  0.00    -0.223 NA
BRANCH   11   16
ATOM     16 C12  LIG L   1      13.193  60.243  12.500  1.00  0.00     0.019 A 
ATOM     17 C13  LIG L   1      10.869  60.735  11.651  1.00  0.00     0.020 A 
ATOM     18 C14  LIG L   1      11.949  59.804  11.880  1.00  0.00     0.013 A 
ATOM     19 C15  LIG L   1      11.055  62.106  12.048  1.00  0.00     0.111 A 
ATOM     20  N4  LIG L   1      12.255  62.517  12.645  1.00  0.00    -0.263 NA
ATOM     21 C16  LIG L   1      13.312  61.643  12.880  1.00  0.00     0.120 A 
ENDBRANCH   11   16
ENDBRANCH    8   10
ENDBRANCH    1    8
BRANCH    5   22
ATOM     22  N5  LIG L   1      16.579  51.999  15.118  1.00  0.00    -0.281 N 
ATOM     23 C17  LIG L   1      15.602  51.071  15.439  1.00  0.00     0.248 C 
ATOM     24  H2  LIG L   1      17.327  52.077  15.753  1.00  0.00     0.155 HD
ATOM     25  O1  LIG L   1      14.512  50.996  14.891  1.00  0.00    -0.270 OA
BRANCH   23   26
ATOM     26 C18  LIG L   1      15.868  50.094  16.539  1.00  0.00     0.037 A 
ATOM     27 C19  LIG L   1      14.889  49.864  17.604  1.00  0.00     0.013 A 
ATOM     28 C20  LIG L   1      17.124  49.375  16.549  1.00  0.00     0.013 A 
ATOM     29 C21  LIG L   1      15.177  48.928  18.662  1.00  0.00     0.002 A 
ATOM     30 C22  LIG L   1      17.403  48.458  17.587  1.00  0.00     0.002 A 
ATOM     31 C23  LIG L   1      16.452  48.215  18.659  1.00  0.00    -0.064 A 
BRANCH   31   32
ATOM     32 C24  LIG L   1      16.854  47.214  19.759  1.00  0.00    -0.043 C 
BRANCH   32   33
ATOM     33  N6  LIG L   1      18.224  47.347  20.337  1.00  0.00     0.380 N 
ATOM     34 C25  LIG L   1      19.127  48.103  19.394  1.00  0.00    -0.097 C 
ATOM     35 C26  LIG L   1      18.206  48.029  21.708  1.00  0.00    -0.097 C 
ATOM     36  H3  LIG L   1      18.589  46.403  20.465  1.00  0.00    -0.082 HD
ATOM     37 C27  LIG L   1      20.565  48.235  19.968  1.00  0.00    -0.098 C 
ATOM     38 C28  LIG L   1      19.645  48.139  22.308  1.00  0.00    -0.098 C 
ATOM     39  N7  LIG L   1      20.543  48.905  21.334  1.00  0.00     0.375 N 
ATOM     40 C29  LIG L   1      21.882  49.060  21.921  1.00  0.00    -0.096 C 
ATOM     41  H4  LIG L   1      20.165  49.839  21.180  1.00  0.00    -0.082 HD
ENDBRANCH   32   33
ENDBRANCH   31   32
ENDBRANCH   23   26
ENDBRANCH    5   22
TORSDOF 7
ENDMDL
MODEL 5
REMARK VINA RESULT:   -11.441      1.612     13.598
REMARK INTER + INTRA:         -15.506
REMARK INTER:                 -14.658
REMARK INTRA:                  -0.848
REMARK UNBOUND:                 0.617
REMARK Flexibility Score: inf
REMARK Active torsions [ 7 ] -> [ 7 ]
ROOT
ATOM      1  C1  LIG L   1      17.164  48.490  17.605  1.00  0.00     0.038 A 
ATOM      2  C2  LIG L   1      15.852  48.185  18.188  1.00  0.00    -0.029 A 
ATOM      3  C3  LIG L   1      14.774  49.102  17.950  1.00  0.00     0.007 A 
ATOM      4  C4  LIG L   1      14.980  50.288  17.156  1.00  0.00     0.024 A 
ATOM      5  C5  LIG L   1      16.252  50.585  16.585  1.00  0.00     0.035 A 
ATOM      6  C6  LIG L   1      17.348  49.660  16.825  1.00  0.00     0.047 A 
ATOM      7  C7  LIG L   1      15.572  46.926  19.042  1.00  0.00     0.045 C 
ENDROOT
BRANCH    1    8
ATOM      8  N1  LIG L   1      18.252  47.637  17.804  1.00  0.00    -0.283 N 
ATOM      9  H1  LIG L   1      18.421  46.907  17.165  1.00  0.00     0.155 HD
BRANCH    8   10
ATOM     10  C8  LIG L   1      19.095  47.806  18.891  1.00  0.00     0.220 A 
ATOM     11  C9  LIG L   1      19.830  46.998  21.008  1.00  0.00     0.077 A 
ATOM     12 C10  LIG L   1      20.754  48.088  21.130  1.00  0.00     0.048 A 
ATOM     13  N2  LIG L   1      19.035  46.899  19.888  1.00  0.00    -0.214 NA
ATOM     14 C11  LIG L   1      20.798  49.023  20.072  1.00  0.00     0.116 A 
ATOM     15  N3  LIG L   1      19.974  48.870  18.978  1.00  0.00    -0.223 NA
BRANCH   11   16
ATOM     16 C12  LIG L   1      19.664  45.930  22.044  1.00  0.00     0.019 A 
ATOM     17 C13  LIG L   1      18.650  43.786  22.903  1.00  0.00     0.020 A 
ATOM     18 C14  LIG L   1      18.773  44.789  21.871  1.00  0.00     0.013 A 
ATOM     19 C15  LIG L   1      19.427  43.943  24.104  1.00  0.00     0.111 A 
ATOM     20  N4  LIG L   1      20.283  45.044  24.259  1.00  0.00    -0.263 NA
ATOM     21 C16  LIG L   1      20.423  46.025  23.282  1.00  0.00     0.120 A 
ENDBRANCH   11   16
ENDBRANCH    8   10
ENDBRANCH    1    8
BRANCH    5   22
ATOM     22  N5  LIG L   1      16.377  51.785  15.795  1.00  0.00    -0.281 N 
ATOM     23 C17  LIG L   1      15.756  52.083  14.594  1.00  0.00     0.248 C 
ATOM     24  H2  LIG L   1      16.979  52.477  16.154  1.00  0.00     0.155 HD
ATOM     25  O1  LIG L   1      15.159  51.270  13.904  1.00  0.00    -0.270 OA
BRANCH   23   26
ATOM     26 C18  LIG L   1      15.819  53.483  14.076  1.00  0.00     0.037 A 
ATOM     27 C19  LIG L   1      17.077  54.235  14.069  1.00  0.00     0.013 A 
ATOM     28 C20  LIG L   1      14.608  54.104  13.583  1.00  0.00     0.013 A 
ATOM     29 C21  LIG L   1      17.106  55.591  13.580  1.00  0.00     0.002 A 
ATOM     30 C22  LIG L   1      14.641  55.432  13.103  1.00  0.00     0.002 A 
ATOM     31 C23  LIG L   1      15.873  56.203  13.091  1.00  0.00    -0.064 A 
BRANCH   31   32
ATOM     32 C24  LIG L   1      15.808  57.651  12.570  1.00  0.00    -0.043 C 
BRANCH   32   33
ATOM     33  N6  LIG L   1      14.537  58.402  12.797  1.00  0.00     0.380 N 
ATOM     34 C25  LIG L   1      14.827  59.824  13.210  1.00  0.00    -0.097 C 
ATOM     35 C26  LIG L   1      13.633  58.388  11.560  1.00  0.00    -0.097 C 
ATOM     36  H3  LIG L   1      14.038  57.929  13.550  1.00  0.00    -0.082 HD
ATOM     37 C27  LIG L   1      13.517  60.618  13.471  1.00  0.00    -0.098 C 
ATOM     38 C28  LIG L   1      12.298  59.159  11.822  1.00  0.00    -0.098 C 
ATOM     39  N7  LIG L   1      12.616  60.594  12.244  1.00  0.00     0.375 N 
ATOM     40 C29  LIG L   1      11.363  61.339  12.435  1.00  0.00    -0.096 C 
ATOM     41  H4  LIG L   1      13.142  61.062  11.505  1.00  0.00    -0.082 HD
ENDBRANCH   32   33
ENDBRANCH   31   32
ENDBRANCH   23   26
ENDBRANCH    5   22
TORSDOF 7
ENDMDL
