AMP
  -OEChem-05192315223D

 37 39  0     1  0  0  0  0  0999 V2000
   -4.7830   -0.9800    0.1050 P   0  0  0  0  0  0  0  0  0  0  0  0
   -5.8200   -0.0050   -0.3020 O   0  0  0  0  0  0  0  0  0  0  0  0
   -5.3110   -1.8280    1.3680 O   0  0  0  0  0  0  0  0  0  0  0  0
   -4.4740   -1.9780   -1.1190 O   0  0  0  0  0  0  0  0  0  0  0  0
   -3.4370   -0.1950    0.5110 O   0  0  0  0  0  0  0  0  0  0  0  0
   -2.7820    0.7270   -0.3620 C   0  0  0  0  0  0  0  0  0  0  0  0
   -1.5400    1.2900    0.3310 C   0  0  1  0  0  0  0  0  0  0  0  0
   -0.5710    0.2460    0.5230 O   0  0  0  0  0  0  0  0  0  0  0  0
   -0.8850    2.3650   -0.5580 C   0  0  1  0  0  0  0  0  0  0  0  0
   -0.8520    3.6230    0.1190 O   0  0  0  0  0  0  0  0  0  0  0  0
    0.5520    1.8390   -0.7940 C   0  0  1  0  0  0  0  0  0  0  0  0
    1.5030    2.9030   -0.7200 O   0  0  0  0  0  0  0  0  0  0  0  0
    0.7330    0.8500    0.3860 C   0  0  2  0  0  0  0  0  0  0  0  0
    1.7400   -0.1630    0.0600 N   0  0  0  0  0  0  0  0  0  0  0  0
    1.5080   -1.3690   -0.5300 C   0  0  0  0  0  0  0  0  0  0  0  0
    2.6280   -2.0170   -0.6720 N   0  0  0  0  0  0  0  0  0  0  0  0
    3.6460   -1.2700   -0.1830 C   0  0  0  0  0  0  0  0  0  0  0  0
    5.0360   -1.4470   -0.0690 C   0  0  0  0  0  0  0  0  0  0  0  0
    5.6420   -2.6060   -0.5200 N   0  0  0  0  0  0  0  0  0  0  0  0
    5.7550   -0.4740    0.4820 N   0  0  0  0  0  0  0  0  0  0  0  0
    5.1860    0.6360    0.9140 C   0  0  0  0  0  0  0  0  0  0  0  0
    3.8890    0.8450    0.8290 N   0  0  0  0  0  0  0  0  0  0  0  0
    3.0900   -0.0680    0.2870 C   0  0  0  0  0  0  0  0  0  0  0  0
   -6.1210   -2.3270    1.1960 H   0  0  0  0  0  0  0  0  0  0  0  0
   -3.8030   -2.6460   -0.9230 H   0  0  0  0  0  0  0  0  0  0  0  0
   -2.4860    0.2140   -1.2770 H   0  0  0  0  0  0  0  0  0  0  0  0
   -3.4620    1.5430   -0.6070 H   0  0  0  0  0  0  0  0  0  0  0  0
   -1.8160    1.7210    1.2940 H   0  0  0  0  0  0  0  0  0  0  0  0
   -1.4200    2.4560   -1.5030 H   0  0  0  0  0  0  0  0  0  0  0  0
   -0.4500    4.3360   -0.3950 H   0  0  0  0  0  0  0  0  0  0  0  0
    0.6240    1.3210   -1.7510 H   0  0  0  0  0  0  0  0  0  0  0  0
    1.3730    3.5940   -1.3830 H   0  0  0  0  0  0  0  0  0  0  0  0
    1.0060    1.3850    1.2960 H   0  0  0  0  0  0  0  0  0  0  0  0
    0.5380   -1.7340   -0.8350 H   0  0  0  0  0  0  0  0  0  0  0  0
    5.1060   -3.3090   -0.9200 H   0  0  0  0  0  0  0  0  0  0  0  0
    6.6020   -2.7170   -0.4350 H   0  0  0  0  0  0  0  0  0  0  0  0
    5.8070    1.4020    1.3550 H   0  0  0  0  0  0  0  0  0  0  0  0
  1  2  2  0  0  0  0
  1  3  1  0  0  0  0
  1  4  1  0  0  0  0
  1  5  1  0  0  0  0
  3 24  1  0  0  0  0
  4 25  1  0  0  0  0
  5  6  1  0  0  0  0
  6  7  1  0  0  0  0
  6 26  1  0  0  0  0
  6 27  1  0  0  0  0
  7  8  1  0  0  0  0
  7  9  1  0  0  0  0
  7 28  1  0  0  0  0
  8 13  1  0  0  0  0
  9 10  1  0  0  0  0
  9 11  1  0  0  0  0
  9 29  1  0  0  0  0
 10 30  1  0  0  0  0
 11 12  1  0  0  0  0
 11 13  1  0  0  0  0
 11 31  1  0  0  0  0
 12 32  1  0  0  0  0
 13 14  1  0  0  0  0
 13 33  1  0  0  0  0
 14 15  1  0  0  0  0
 14 23  1  0  0  0  0
 15 16  2  0  0  0  0
 15 34  1  0  0  0  0
 16 17  1  0  0  0  0
 17 18  1  0  0  0  0
 17 23  2  0  0  0  0
 18 19  1  0  0  0  0
 18 20  2  0  0  0  0
 19 35  1  0  0  0  0
 19 36  1  0  0  0  0
 20 21  1  0  0  0  0
 21 22  2  0  0  0  0
 21 37  1  0  0  0  0
 22 23  1  0  0  0  0
M  END
> <OPENEYE_ISO_SMILES>
c1nc(c2c(n1)n(cn2)[C@H]3[C@@H]([C@@H]([C@H](O3)COP(=O)(O)O)O)O)N

> <OPENEYE_INCHI>
InChI=1S/C10H14N5O7P/c11-8-5-9(13-2-12-8)15(3-14-5)10-7(17)6(16)4(22-10)1-21-23(18,19)20/h2-4,6-7,10,16-17H,1H2,(H2,11,12,13)(H2,18,19,20)/t4-,6-,7-,10-/m1/s1

> <OPENEYE_INCHIKEY>
UDMBCSSLTHHNCD-KQYNXXCUSA-N

> <FORMULA>
C10H14N5O7P

$$$$
