REMARK SMILES Nc1ncnc2c1ncn2C1OC(COP(=O)(O)O)C(O)C1O
REMARK SMILES IDX 14 1 15 2 16 3 17 4 18 5 19 7 13 9 12 10 20 11 11 12 22 13
REMARK SMILES IDX 21 14 10 16 9 17 6 18 8 19 7 20 5 21 2 22 4 23 3 24 1 25
REMARK SMILES IDX 23 28
REMARK H PARENT 18 6 19 8 21 15 1 26 1 27 23 29
REMARK Flexibility Score: inf
ROOT
ATOM      1  C   UNL     1      -2.782   0.727  -0.362  1.00  0.00     0.208 C 
ENDROOT
BRANCH   1   2
ATOM      2  O   UNL     1      -3.437  -0.195   0.511  1.00  0.00    -0.284 OA
BRANCH   2   3
ATOM      3  P   UNL     1      -4.783  -0.980   0.105  1.00  0.00     0.469 P 
ATOM      4  O   UNL     1      -5.820  -0.005  -0.302  1.00  0.00    -0.228 OA
BRANCH   3   5
ATOM      5  O   UNL     1      -5.311  -1.828   1.368  1.00  0.00    -0.303 OA
ATOM      6  H   UNL     1      -6.121  -2.327   1.196  1.00  0.00     0.223 HD
ENDBRANCH   3   5
BRANCH   3   7
ATOM      7  O   UNL     1      -4.474  -1.978  -1.119  1.00  0.00    -0.303 OA
ATOM      8  H   UNL     1      -3.803  -2.646  -0.923  1.00  0.00     0.223 HD
ENDBRANCH   3   7
ENDBRANCH   2   3
ENDBRANCH   1   2
BRANCH   1   9
ATOM      9  C   UNL     1      -1.540   1.290   0.331  1.00  0.00     0.179 C 
ATOM     10  O   UNL     1      -0.571   0.246   0.523  1.00  0.00    -0.347 OA
ATOM     11  C   UNL     1      -0.885   2.365  -0.558  1.00  0.00     0.179 C 
ATOM     12  C   UNL     1       0.733   0.850   0.386  1.00  0.00     0.253 C 
ATOM     13  C   UNL     1       0.552   1.839  -0.794  1.00  0.00     0.195 C 
BRANCH  11  14
ATOM     14  O   UNL     1      -0.852   3.623   0.119  1.00  0.00    -0.387 OA
ATOM     15  H   UNL     1      -0.450   4.336  -0.395  1.00  0.00     0.211 HD
ENDBRANCH  11  14
BRANCH  12  16
ATOM     16  N   UNL     1       1.740  -0.163   0.060  1.00  0.00    -0.285 N 
ATOM     17  C   UNL     1       1.508  -1.369  -0.530  1.00  0.00     0.204 A 
ATOM     18  C   UNL     1       3.090  -0.068   0.287  1.00  0.00     0.167 A 
ATOM     19  N   UNL     1       2.628  -2.017  -0.672  1.00  0.00    -0.231 NA
ATOM     20  C   UNL     1       3.646  -1.270  -0.183  1.00  0.00     0.150 A 
ATOM     21  N   UNL     1       3.889   0.845   0.829  1.00  0.00    -0.216 NA
ATOM     22  C   UNL     1       5.036  -1.447  -0.069  1.00  0.00     0.155 A 
ATOM     23  C   UNL     1       5.186   0.636   0.914  1.00  0.00     0.226 A 
ATOM     24  N   UNL     1       5.755  -0.474   0.482  1.00  0.00    -0.217 NA
BRANCH  22  25
ATOM     25  N   UNL     1       5.642  -2.606  -0.520  1.00  0.00    -0.382 N 
ATOM     26  H   UNL     1       5.106  -3.309  -0.920  1.00  0.00     0.158 HD
ATOM     27  H   UNL     1       6.602  -2.717  -0.435  1.00  0.00     0.158 HD
ENDBRANCH  22  25
ENDBRANCH  12  16
BRANCH  13  28
ATOM     28  O   UNL     1       1.503   2.903  -0.720  1.00  0.00    -0.386 OA
ATOM     29  H   UNL     1       1.373   3.594  -1.383  1.00  0.00     0.211 HD
ENDBRANCH  13  28
ENDBRANCH   1   9
TORSDOF 9
