MODEL 1
REMARK VINA RESULT:    -0.000      0.000      0.000
REMARK INTER + INTRA:          -1.231
REMARK INTER:                   0.000
REMARK INTRA:                  -1.231
REMARK UNBOUND:                -1.231
REMARK SMILES Nc1ncnc2c1ncn2C1OC(COP(=O)(O)O)C(O)C1O
REMARK SMILES IDX 14 1 15 2 16 3 17 4 18 5 19 7 13 9 12 10 20 11 11 12 22 13
REMARK SMILES IDX 21 14 10 16 9 17 6 18 8 19 7 20 5 21 2 22 4 23 3 24 1 25
REMARK SMILES IDX 23 28
REMARK H PARENT 18 6 19 8 21 15 1 26 1 27 23 29
REMARK Flexibility Score: inf
ROOT
ATOM      1  C   UNL     1      -0.856  -3.105  -0.266  1.00  0.00     0.208 C 
ENDROOT
BRANCH   1   2
ATOM      2  O   UNL     1      -0.555  -4.472   0.018  1.00  0.00    -0.284 OA
BRANCH   2   3
ATOM      3  P   UNL     1      -1.352  -5.334   1.120  1.00  0.00     0.469 P 
ATOM      4  O   UNL     1      -2.518  -5.990   0.486  1.00  0.00    -0.228 OA
BRANCH   3   5
ATOM      5  O   UNL     1      -1.860  -4.360   2.297  1.00  0.00    -0.303 OA
ATOM      6  H   UNL     1      -1.185  -4.156   2.959  1.00  0.00     0.223 HD
ENDBRANCH   3   5
BRANCH   3   7
ATOM      7  O   UNL     1      -0.375  -6.454   1.736  1.00  0.00    -0.303 OA
ATOM      8  H   UNL     1       0.058  -7.007   1.071  1.00  0.00     0.223 HD
ENDBRANCH   3   7
ENDBRANCH   2   3
ENDBRANCH   1   2
BRANCH   1   9
ATOM      9  C   UNL     1       0.238  -2.211   0.318  1.00  0.00     0.179 C 
ATOM     10  O   UNL     1      -0.067  -1.895   1.687  1.00  0.00    -0.347 OA
ATOM     11  C   UNL     1       1.586  -2.958   0.310  1.00  0.00     0.179 C 
ATOM     12  C   UNL     1       1.191  -1.809   2.391  1.00  0.00     0.253 C 
ATOM     13  C   UNL     1       2.019  -2.977   1.797  1.00  0.00     0.195 C 
BRANCH  11  14
ATOM     14  O   UNL     1       2.545  -2.252  -0.480  1.00  0.00    -0.387 OA
ATOM     15  H   UNL     1       2.635  -2.588  -1.382  1.00  0.00     0.211 HD
ENDBRANCH  11  14
BRANCH  12  16
ATOM     16  N   UNL     1       0.991  -1.997   3.830  1.00  0.00    -0.285 N 
ATOM     17  C   UNL     1       1.030  -1.024   4.783  1.00  0.00     0.204 A 
ATOM     18  C   UNL     1       0.726  -3.185   4.464  1.00  0.00     0.167 A 
ATOM     19  N   UNL     1       0.810  -1.543   5.956  1.00  0.00    -0.231 NA
ATOM     20  C   UNL     1       0.618  -2.877   5.831  1.00  0.00     0.150 A 
ATOM     21  N   UNL     1       0.583  -4.447   4.072  1.00  0.00    -0.216 NA
ATOM     22  C   UNL     1       0.349  -3.926   6.727  1.00  0.00     0.155 A 
ATOM     23  C   UNL     1       0.331  -5.397   4.948  1.00  0.00     0.226 A 
ATOM     24  N   UNL     1       0.216  -5.156   6.241  1.00  0.00    -0.217 NA
BRANCH  22  25
ATOM     25  N   UNL     1       0.225  -3.684   8.084  1.00  0.00    -0.382 N 
ATOM     26  H   UNL     1       1.013  -3.684   8.650  1.00  0.00     0.158 HD
ATOM     27  H   UNL     1      -0.649  -3.517   8.470  1.00  0.00     0.158 HD
ENDBRANCH  22  25
ENDBRANCH  12  16
BRANCH  13  28
ATOM     28  O   UNL     1       3.420  -2.727   1.924  1.00  0.00    -0.386 OA
ATOM     29  H   UNL     1       3.709  -1.894   1.527  1.00  0.00     0.211 HD
ENDBRANCH  13  28
ENDBRANCH   1   9
TORSDOF 9
ENDMDL
MODEL 2
REMARK VINA RESULT:    -0.000      5.129      6.982
REMARK INTER + INTRA:          -1.231
REMARK INTER:                   0.000
REMARK INTRA:                  -1.231
REMARK UNBOUND:                -1.231
REMARK SMILES Nc1ncnc2c1ncn2C1OC(COP(=O)(O)O)C(O)C1O
REMARK SMILES IDX 14 1 15 2 16 3 17 4 18 5 19 7 13 9 12 10 20 11 11 12 22 13
REMARK SMILES IDX 21 14 10 16 9 17 6 18 8 19 7 20 5 21 2 22 4 23 3 24 1 25
REMARK SMILES IDX 23 28
REMARK H PARENT 18 6 19 8 21 15 1 26 1 27 23 29
REMARK Flexibility Score: inf
ROOT
ATOM      1  C   UNL     1       5.702  -6.237   0.848  1.00  0.00     0.208 C 
ENDROOT
BRANCH   1   2
ATOM      2  O   UNL     1       6.796  -5.597   0.188  1.00  0.00    -0.284 OA
BRANCH   2   3
ATOM      3  P   UNL     1       8.139  -5.148   0.955  1.00  0.00     0.469 P 
ATOM      4  O   UNL     1       9.114  -6.261   0.938  1.00  0.00    -0.228 OA
BRANCH   3   5
ATOM      5  O   UNL     1       7.785  -4.769   2.479  1.00  0.00    -0.303 OA
ATOM      6  H   UNL     1       7.301  -3.937   2.576  1.00  0.00     0.223 HD
ENDBRANCH   3   5
BRANCH   3   7
ATOM      7  O   UNL     1       8.775  -3.866   0.218  1.00  0.00    -0.303 OA
ATOM      8  H   UNL     1       9.741  -3.851   0.218  1.00  0.00     0.223 HD
ENDBRANCH   3   7
ENDBRANCH   2   3
ENDBRANCH   1   2
BRANCH   1   9
ATOM      9  C   UNL     1       4.545  -5.246   0.991  1.00  0.00     0.179 C 
ATOM     10  O   UNL     1       4.702  -4.482   2.198  1.00  0.00    -0.347 OA
ATOM     11  C   UNL     1       4.557  -4.252  -0.186  1.00  0.00     0.179 C 
ATOM     12  C   UNL     1       4.189  -3.159   1.930  1.00  0.00     0.253 C 
ATOM     13  C   UNL     1       4.683  -2.864   0.491  1.00  0.00     0.195 C 
BRANCH  11  14
ATOM     14  O   UNL     1       3.338  -4.338  -0.926  1.00  0.00    -0.387 OA
ATOM     15  H   UNL     1       3.452  -4.633  -1.839  1.00  0.00     0.211 HD
ENDBRANCH  11  14
BRANCH  12  16
ATOM     16  N   UNL     1       4.745  -2.188   2.875  1.00  0.00    -0.285 N 
ATOM     17  C   UNL     1       4.091  -1.622   3.928  1.00  0.00     0.204 A 
ATOM     18  C   UNL     1       6.022  -1.686   2.867  1.00  0.00     0.167 A 
ATOM     19  N   UNL     1       4.884  -0.804   4.557  1.00  0.00    -0.231 NA
ATOM     20  C   UNL     1       6.094  -0.794   3.949  1.00  0.00     0.150 A 
ATOM     21  N   UNL     1       7.092  -1.854   2.095  1.00  0.00    -0.216 NA
ATOM     22  C   UNL     1       7.309  -0.123   4.177  1.00  0.00     0.155 A 
ATOM     23  C   UNL     1       8.209  -1.204   2.347  1.00  0.00     0.226 A 
ATOM     24  N   UNL     1       8.326  -0.360   3.355  1.00  0.00    -0.217 NA
BRANCH  22  25
ATOM     25  N   UNL     1       7.443   0.763   5.231  1.00  0.00    -0.382 N 
ATOM     26  H   UNL     1       6.739   0.835   5.895  1.00  0.00     0.158 HD
ATOM     27  H   UNL     1       8.238   1.312   5.306  1.00  0.00     0.158 HD
ENDBRANCH  22  25
ENDBRANCH  12  16
BRANCH  13  28
ATOM     28  O   UNL     1       3.840  -1.905  -0.152  1.00  0.00    -0.386 OA
ATOM     29  H   UNL     1       4.274  -1.415  -0.864  1.00  0.00     0.211 HD
ENDBRANCH  13  28
ENDBRANCH   1   9
TORSDOF 9
ENDMDL
MODEL 3
REMARK VINA RESULT:     0.000      4.358      6.097
REMARK INTER + INTRA:          -1.231
REMARK INTER:                   0.000
REMARK INTRA:                  -1.231
REMARK UNBOUND:                -1.231
REMARK SMILES Nc1ncnc2c1ncn2C1OC(COP(=O)(O)O)C(O)C1O
REMARK SMILES IDX 14 1 15 2 16 3 17 4 18 5 19 7 13 9 12 10 20 11 11 12 22 13
REMARK SMILES IDX 21 14 10 16 9 17 6 18 8 19 7 20 5 21 2 22 4 23 3 24 1 25
REMARK SMILES IDX 23 28
REMARK H PARENT 18 6 19 8 21 15 1 26 1 27 23 29
REMARK Flexibility Score: inf
ROOT
ATOM      1  C   UNL     1      -1.375  -7.130   5.740  1.00  0.00     0.208 C 
ENDROOT
BRANCH   1   2
ATOM      2  O   UNL     1      -0.322  -6.199   5.486  1.00  0.00    -0.284 OA
BRANCH   2   3
ATOM      3  P   UNL     1       0.301  -5.249   6.626  1.00  0.00     0.469 P 
ATOM      4  O   UNL     1       1.425  -5.946   7.291  1.00  0.00    -0.228 OA
BRANCH   3   5
ATOM      5  O   UNL     1      -0.834  -4.903   7.715  1.00  0.00    -0.303 OA
ATOM      6  H   UNL     1      -1.735  -4.921   7.364  1.00  0.00     0.223 HD
ENDBRANCH   3   5
BRANCH   3   7
ATOM      7  O   UNL     1       0.835  -3.886   5.957  1.00  0.00    -0.303 OA
ATOM      8  H   UNL     1       1.420  -4.022   5.200  1.00  0.00     0.223 HD
ENDBRANCH   3   7
ENDBRANCH   2   3
ENDBRANCH   1   2
BRANCH   1   9
ATOM      9  C   UNL     1      -2.678  -6.602   5.136  1.00  0.00     0.179 C 
ATOM     10  O   UNL     1      -3.340  -5.741   6.077  1.00  0.00    -0.347 OA
ATOM     11  C   UNL     1      -2.372  -5.761   3.882  1.00  0.00     0.179 C 
ATOM     12  C   UNL     1      -3.999  -4.709   5.314  1.00  0.00     0.253 C 
ATOM     13  C   UNL     1      -2.974  -4.370   4.201  1.00  0.00     0.195 C 
BRANCH  11  14
ATOM     14  O   UNL     1      -3.004  -6.327   2.732  1.00  0.00    -0.387 OA
ATOM     15  H   UNL     1      -3.123  -7.285   2.781  1.00  0.00     0.211 HD
ENDBRANCH  11  14
BRANCH  12  16
ATOM     16  N   UNL     1      -4.260  -3.534   6.150  1.00  0.00    -0.285 N 
ATOM     17  C   UNL     1      -5.468  -3.156   6.653  1.00  0.00     0.204 A 
ATOM     18  C   UNL     1      -3.331  -2.617   6.574  1.00  0.00     0.167 A 
ATOM     19  N   UNL     1      -5.336  -2.065   7.352  1.00  0.00    -0.231 NA
ATOM     20  C   UNL     1      -4.039  -1.676   7.340  1.00  0.00     0.150 A 
ATOM     21  N   UNL     1      -2.023  -2.457   6.400  1.00  0.00    -0.216 NA
ATOM     22  C   UNL     1      -3.323  -0.606   7.903  1.00  0.00     0.155 A 
ATOM     23  C   UNL     1      -1.394  -1.438   6.948  1.00  0.00     0.226 A 
ATOM     24  N   UNL     1      -2.015  -0.532   7.680  1.00  0.00    -0.217 NA
BRANCH  22  25
ATOM     25  N   UNL     1      -3.964   0.349   8.673  1.00  0.00    -0.382 N 
ATOM     26  H   UNL     1      -4.146   1.227   8.303  1.00  0.00     0.158 HD
ATOM     27  H   UNL     1      -4.230   0.141   9.583  1.00  0.00     0.158 HD
ENDBRANCH  22  25
ENDBRANCH  12  16
BRANCH  13  28
ATOM     28  O   UNL     1      -3.626  -3.821   3.054  1.00  0.00    -0.386 OA
ATOM     29  H   UNL     1      -3.443  -4.296   2.233  1.00  0.00     0.211 HD
ENDBRANCH  13  28
ENDBRANCH   1   9
TORSDOF 9
ENDMDL
MODEL 4
REMARK VINA RESULT:     0.000      6.716      7.717
REMARK INTER + INTRA:          -1.231
REMARK INTER:                   0.000
REMARK INTRA:                  -1.231
REMARK UNBOUND:                -1.231
REMARK SMILES Nc1ncnc2c1ncn2C1OC(COP(=O)(O)O)C(O)C1O
REMARK SMILES IDX 14 1 15 2 16 3 17 4 18 5 19 7 13 9 12 10 20 11 11 12 22 13
REMARK SMILES IDX 21 14 10 16 9 17 6 18 8 19 7 20 5 21 2 22 4 23 3 24 1 25
REMARK SMILES IDX 23 28
REMARK H PARENT 18 6 19 8 21 15 1 26 1 27 23 29
REMARK Flexibility Score: inf
ROOT
ATOM      1  C   UNL     1      -1.658   5.259   6.232  1.00  0.00     0.208 C 
ENDROOT
BRANCH   1   2
ATOM      2  O   UNL     1      -2.376   4.451   5.298  1.00  0.00    -0.284 OA
BRANCH   2   3
ATOM      3  P   UNL     1      -3.726   3.661   5.679  1.00  0.00     0.469 P 
ATOM      4  O   UNL     1      -4.896   4.533   5.432  1.00  0.00    -0.228 OA
BRANCH   3   5
ATOM      5  O   UNL     1      -3.685   3.249   7.235  1.00  0.00    -0.303 OA
ATOM      6  H   UNL     1      -4.127   3.878   7.821  1.00  0.00     0.223 HD
ENDBRANCH   3   5
BRANCH   3   7
ATOM      7  O   UNL     1      -3.845   2.334   4.777  1.00  0.00    -0.303 OA
ATOM      8  H   UNL     1      -4.224   1.575   5.240  1.00  0.00     0.223 HD
ENDBRANCH   3   7
ENDBRANCH   2   3
ENDBRANCH   1   2
BRANCH   1   9
ATOM      9  C   UNL     1      -0.377   4.536   6.652  1.00  0.00     0.179 C 
ATOM     10  O   UNL     1      -0.648   3.663   7.760  1.00  0.00    -0.347 OA
ATOM     11  C   UNL     1       0.134   3.660   5.492  1.00  0.00     0.179 C 
ATOM     12  C   UNL     1       0.206   2.510   7.608  1.00  0.00     0.253 C 
ATOM     13  C   UNL     1       0.168   2.229   6.084  1.00  0.00     0.195 C 
BRANCH  11  14
ATOM     14  O   UNL     1       1.445   4.068   5.096  1.00  0.00    -0.387 OA
ATOM     15  H   UNL     1       2.118   3.947   5.779  1.00  0.00     0.211 HD
ENDBRANCH  11  14
BRANCH  12  16
ATOM     16  N   UNL     1      -0.328   1.368   8.356  1.00  0.00    -0.285 N 
ATOM     17  C   UNL     1       0.157   0.877   9.531  1.00  0.00     0.204 A 
ATOM     18  C   UNL     1      -1.411   0.603   8.005  1.00  0.00     0.167 A 
ATOM     19  N   UNL     1      -0.557  -0.141   9.915  1.00  0.00    -0.231 NA
ATOM     20  C   UNL     1      -1.542  -0.367   9.014  1.00  0.00     0.150 A 
ATOM     21  N   UNL     1      -2.264   0.594   6.986  1.00  0.00    -0.216 NA
ATOM     22  C   UNL     1      -2.586  -1.301   8.903  1.00  0.00     0.155 A 
ATOM     23  C   UNL     1      -3.228  -0.300   6.925  1.00  0.00     0.226 A 
ATOM     24  N   UNL     1      -3.394  -1.227   7.850  1.00  0.00    -0.217 NA
BRANCH  22  25
ATOM     25  N   UNL     1      -2.770  -2.276   9.868  1.00  0.00    -0.382 N 
ATOM     26  H   UNL     1      -3.637  -2.699   9.970  1.00  0.00     0.158 HD
ATOM     27  H   UNL     1      -2.033  -2.534  10.444  1.00  0.00     0.158 HD
ENDBRANCH  22  25
ENDBRANCH  12  16
BRANCH  13  28
ATOM     28  O   UNL     1       1.341   1.531   5.663  1.00  0.00    -0.386 OA
ATOM     29  H   UNL     1       2.044   1.507   6.325  1.00  0.00     0.211 HD
ENDBRANCH  13  28
ENDBRANCH   1   9
TORSDOF 9
ENDMDL
MODEL 5
REMARK VINA RESULT:     0.000      5.214      6.359
REMARK INTER + INTRA:          -1.231
REMARK INTER:                   0.000
REMARK INTRA:                  -1.231
REMARK UNBOUND:                -1.231
REMARK SMILES Nc1ncnc2c1ncn2C1OC(COP(=O)(O)O)C(O)C1O
REMARK SMILES IDX 14 1 15 2 16 3 17 4 18 5 19 7 13 9 12 10 20 11 11 12 22 13
REMARK SMILES IDX 21 14 10 16 9 17 6 18 8 19 7 20 5 21 2 22 4 23 3 24 1 25
REMARK SMILES IDX 23 28
REMARK H PARENT 18 6 19 8 21 15 1 26 1 27 23 29
REMARK Flexibility Score: inf
ROOT
ATOM      1  C   UNL     1       2.590   0.562   1.224  1.00  0.00     0.208 C 
ENDROOT
BRANCH   1   2
ATOM      2  O   UNL     1       2.587   1.501   2.301  1.00  0.00    -0.284 OA
BRANCH   2   3
ATOM      3  P   UNL     1       2.192   1.102   3.810  1.00  0.00     0.469 P 
ATOM      4  O   UNL     1       3.404   0.661   4.538  1.00  0.00    -0.228 OA
BRANCH   3   5
ATOM      5  O   UNL     1       1.117  -0.097   3.784  1.00  0.00    -0.303 OA
ATOM      6  H   UNL     1       1.486  -0.950   3.519  1.00  0.00     0.223 HD
ENDBRANCH   3   5
BRANCH   3   7
ATOM      7  O   UNL     1       1.554   2.378   4.554  1.00  0.00    -0.303 OA
ATOM      8  H   UNL     1       0.617   2.519   4.360  1.00  0.00     0.223 HD
ENDBRANCH   3   7
ENDBRANCH   2   3
ENDBRANCH   1   2
BRANCH   1   9
ATOM      9  C   UNL     1       1.386   0.824   0.317  1.00  0.00     0.179 C 
ATOM     10  O   UNL     1       0.238   0.112   0.809  1.00  0.00    -0.347 OA
ATOM     11  C   UNL     1       1.035   2.325   0.331  1.00  0.00     0.179 C 
ATOM     12  C   UNL     1      -0.918   0.928   0.523  1.00  0.00     0.253 C 
ATOM     13  C   UNL     1      -0.431   2.367   0.828  1.00  0.00     0.195 C 
BRANCH  11  14
ATOM     14  O   UNL     1       1.134   2.874  -0.984  1.00  0.00    -0.387 OA
ATOM     15  H   UNL     1       0.442   3.515  -1.196  1.00  0.00     0.211 HD
ENDBRANCH  11  14
BRANCH  12  16
ATOM     16  N   UNL     1      -2.035   0.565   1.400  1.00  0.00    -0.285 N 
ATOM     17  C   UNL     1      -3.142  -0.145   1.043  1.00  0.00     0.204 A 
ATOM     18  C   UNL     1      -2.155   0.874   2.731  1.00  0.00     0.167 A 
ATOM     19  N   UNL     1      -3.930  -0.285   2.069  1.00  0.00    -0.231 NA
ATOM     20  C   UNL     1      -3.381   0.326   3.145  1.00  0.00     0.150 A 
ATOM     21  N   UNL     1      -1.416   1.541   3.611  1.00  0.00    -0.216 NA
ATOM     22  C   UNL     1      -3.766   0.499   4.487  1.00  0.00     0.155 A 
ATOM     23  C   UNL     1      -1.816   1.677   4.858  1.00  0.00     0.226 A 
ATOM     24  N   UNL     1      -2.956   1.176   5.295  1.00  0.00    -0.217 NA
BRANCH  22  25
ATOM     25  N   UNL     1      -4.959  -0.023   4.955  1.00  0.00    -0.382 N 
ATOM     26  H   UNL     1      -5.802   0.368   4.675  1.00  0.00     0.158 HD
ATOM     27  H   UNL     1      -4.952  -0.777   5.564  1.00  0.00     0.158 HD
ENDBRANCH  22  25
ENDBRANCH  12  16
BRANCH  13  28
ATOM     28  O   UNL     1      -1.190   3.330   0.094  1.00  0.00    -0.386 OA
ATOM     29  H   UNL     1      -0.902   4.243   0.227  1.00  0.00     0.211 HD
ENDBRANCH  13  28
ENDBRANCH   1   9
TORSDOF 9
ENDMDL
MODEL 6
REMARK VINA RESULT:     0.000      8.490     10.475
REMARK INTER + INTRA:          -1.231
REMARK INTER:                   0.000
REMARK INTRA:                  -1.231
REMARK UNBOUND:                -1.231
REMARK SMILES Nc1ncnc2c1ncn2C1OC(COP(=O)(O)O)C(O)C1O
REMARK SMILES IDX 14 1 15 2 16 3 17 4 18 5 19 7 13 9 12 10 20 11 11 12 22 13
REMARK SMILES IDX 21 14 10 16 9 17 6 18 8 19 7 20 5 21 2 22 4 23 3 24 1 25
REMARK SMILES IDX 23 28
REMARK H PARENT 18 6 19 8 21 15 1 26 1 27 23 29
REMARK Flexibility Score: inf
ROOT
ATOM      1  C   UNL     1      -1.357   4.829  -2.371  1.00  0.00     0.208 C 
ENDROOT
BRANCH   1   2
ATOM      2  O   UNL     1      -1.941   4.911  -3.673  1.00  0.00    -0.284 OA
BRANCH   2   3
ATOM      3  P   UNL     1      -3.425   5.478  -3.932  1.00  0.00     0.469 P 
ATOM      4  O   UNL     1      -3.365   6.941  -4.148  1.00  0.00    -0.228 OA
BRANCH   3   5
ATOM      5  O   UNL     1      -4.351   5.163  -2.652  1.00  0.00    -0.303 OA
ATOM      6  H   UNL     1      -4.862   4.346  -2.727  1.00  0.00     0.223 HD
ENDBRANCH   3   5
BRANCH   3   7
ATOM      7  O   UNL     1      -4.052   4.768  -5.233  1.00  0.00    -0.303 OA
ATOM      8  H   UNL     1      -4.963   4.466  -5.118  1.00  0.00     0.223 HD
ENDBRANCH   3   7
ENDBRANCH   2   3
ENDBRANCH   1   2
BRANCH   1   9
ATOM      9  C   UNL     1      -1.321   3.368  -1.919  1.00  0.00     0.179 C 
ATOM     10  O   UNL     1      -2.562   3.023  -1.281  1.00  0.00    -0.347 OA
ATOM     11  C   UNL     1      -1.164   2.445  -3.143  1.00  0.00     0.179 C 
ATOM     12  C   UNL     1      -2.831   1.642  -1.600  1.00  0.00     0.253 C 
ATOM     13  C   UNL     1      -2.408   1.525  -3.087  1.00  0.00     0.195 C 
BRANCH  11  14
ATOM     14  O   UNL     1       0.034   1.673  -3.037  1.00  0.00    -0.387 OA
ATOM     15  H   UNL     1      -0.015   0.808  -3.466  1.00  0.00     0.211 HD
ENDBRANCH  11  14
BRANCH  12  16
ATOM     16  N   UNL     1      -4.257   1.344  -1.445  1.00  0.00    -0.285 N 
ATOM     17  C   UNL     1      -4.827   0.639  -0.428  1.00  0.00     0.204 A 
ATOM     18  C   UNL     1      -5.264   1.729  -2.294  1.00  0.00     0.167 A 
ATOM     19  N   UNL     1      -6.115   0.565  -0.605  1.00  0.00    -0.231 NA
ATOM     20  C   UNL     1      -6.451   1.216  -1.744  1.00  0.00     0.150 A 
ATOM     21  N   UNL     1      -5.322   2.412  -3.433  1.00  0.00    -0.216 NA
ATOM     22  C   UNL     1      -7.657   1.461  -2.423  1.00  0.00     0.155 A 
ATOM     23  C   UNL     1      -6.475   2.618  -4.034  1.00  0.00     0.226 A 
ATOM     24  N   UNL     1      -7.616   2.160  -3.553  1.00  0.00    -0.217 NA
BRANCH  22  25
ATOM     25  N   UNL     1      -8.858   0.987  -1.927  1.00  0.00    -0.382 N 
ATOM     26  H   UNL     1      -9.076   1.106  -0.989  1.00  0.00     0.158 HD
ATOM     27  H   UNL     1      -9.483   0.536  -2.516  1.00  0.00     0.158 HD
ENDBRANCH  22  25
ENDBRANCH  12  16
BRANCH  13  28
ATOM     28  O   UNL     1      -2.061   0.178  -3.416  1.00  0.00    -0.386 OA
ATOM     29  H   UNL     1      -1.111   0.001  -3.402  1.00  0.00     0.211 HD
ENDBRANCH  13  28
ENDBRANCH   1   9
TORSDOF 9
ENDMDL
MODEL 7
REMARK VINA RESULT:     0.000      2.558      3.596
REMARK INTER + INTRA:          -1.231
REMARK INTER:                   0.000
REMARK INTRA:                  -1.231
REMARK UNBOUND:                -1.231
REMARK SMILES Nc1ncnc2c1ncn2C1OC(COP(=O)(O)O)C(O)C1O
REMARK SMILES IDX 14 1 15 2 16 3 17 4 18 5 19 7 13 9 12 10 20 11 11 12 22 13
REMARK SMILES IDX 21 14 10 16 9 17 6 18 8 19 7 20 5 21 2 22 4 23 3 24 1 25
REMARK SMILES IDX 23 28
REMARK H PARENT 18 6 19 8 21 15 1 26 1 27 23 29
REMARK Flexibility Score: inf
ROOT
ATOM      1  C   UNL     1      -0.210  -1.626  -1.397  1.00  0.00     0.208 C 
ENDROOT
BRANCH   1   2
ATOM      2  O   UNL     1       0.939  -2.212  -2.012  1.00  0.00    -0.284 OA
BRANCH   2   3
ATOM      3  P   UNL     1       1.210  -3.799  -2.028  1.00  0.00     0.469 P 
ATOM      4  O   UNL     1       0.583  -4.395  -3.229  1.00  0.00    -0.228 OA
BRANCH   3   5
ATOM      5  O   UNL     1       0.577  -4.465  -0.706  1.00  0.00    -0.303 OA
ATOM      6  H   UNL     1       0.864  -5.374  -0.547  1.00  0.00     0.223 HD
ENDBRANCH   3   5
BRANCH   3   7
ATOM      7  O   UNL     1       2.796  -4.072  -2.058  1.00  0.00    -0.303 OA
ATOM      8  H   UNL     1       3.238  -3.739  -2.851  1.00  0.00     0.223 HD
ENDBRANCH   3   7
ENDBRANCH   2   3
ENDBRANCH   1   2
BRANCH   1   9
ATOM      9  C   UNL     1       0.203  -0.940  -0.094  1.00  0.00     0.179 C 
ATOM     10  O   UNL     1       0.180  -1.887   0.986  1.00  0.00    -0.347 OA
ATOM     11  C   UNL     1       1.647  -0.415  -0.213  1.00  0.00     0.179 C 
ATOM     12  C   UNL     1       1.248  -1.524   1.888  1.00  0.00     0.253 C 
ATOM     13  C   UNL     1       2.404  -1.123   0.937  1.00  0.00     0.195 C 
BRANCH  11  14
ATOM     14  O   UNL     1       1.681   1.003  -0.035  1.00  0.00    -0.387 OA
ATOM     15  H   UNL     1       1.495   1.505  -0.840  1.00  0.00     0.211 HD
ENDBRANCH  11  14
BRANCH  12  16
ATOM     16  N   UNL     1       1.635  -2.669   2.717  1.00  0.00    -0.285 N 
ATOM     17  C   UNL     1       1.336  -2.848   4.034  1.00  0.00     0.204 A 
ATOM     18  C   UNL     1       2.361  -3.759   2.307  1.00  0.00     0.167 A 
ATOM     19  N   UNL     1       1.836  -3.974   4.454  1.00  0.00    -0.231 NA
ATOM     20  C   UNL     1       2.487  -4.586   3.436  1.00  0.00     0.150 A 
ATOM     21  N   UNL     1       2.926  -4.135   1.165  1.00  0.00    -0.216 NA
ATOM     22  C   UNL     1       3.200  -5.789   3.301  1.00  0.00     0.155 A 
ATOM     23  C   UNL     1       3.584  -5.273   1.084  1.00  0.00     0.226 A 
ATOM     24  N   UNL     1       3.725  -6.085   2.116  1.00  0.00    -0.217 NA
BRANCH  22  25
ATOM     25  N   UNL     1       3.352  -6.648   4.375  1.00  0.00    -0.382 N 
ATOM     26  H   UNL     1       3.790  -7.505   4.253  1.00  0.00     0.158 HD
ATOM     27  H   UNL     1       3.020  -6.394   5.251  1.00  0.00     0.158 HD
ENDBRANCH  22  25
ENDBRANCH  12  16
BRANCH  13  28
ATOM     28  O   UNL     1       3.308  -0.223   1.582  1.00  0.00    -0.386 OA
ATOM     29  H   UNL     1       2.918   0.631   1.809  1.00  0.00     0.211 HD
ENDBRANCH  13  28
ENDBRANCH   1   9
TORSDOF 9
ENDMDL
MODEL 8
REMARK VINA RESULT:     0.000      3.540      5.345
REMARK INTER + INTRA:          -1.231
REMARK INTER:                   0.000
REMARK INTRA:                  -1.231
REMARK UNBOUND:                -1.231
REMARK SMILES Nc1ncnc2c1ncn2C1OC(COP(=O)(O)O)C(O)C1O
REMARK SMILES IDX 14 1 15 2 16 3 17 4 18 5 19 7 13 9 12 10 20 11 11 12 22 13
REMARK SMILES IDX 21 14 10 16 9 17 6 18 8 19 7 20 5 21 2 22 4 23 3 24 1 25
REMARK SMILES IDX 23 28
REMARK H PARENT 18 6 19 8 21 15 1 26 1 27 23 29
REMARK Flexibility Score: inf
ROOT
ATOM      1  C   UNL     1      -1.352   0.844   0.372  1.00  0.00     0.208 C 
ENDROOT
BRANCH   1   2
ATOM      2  O   UNL     1      -1.827   1.406   1.597  1.00  0.00    -0.284 OA
BRANCH   2   3
ATOM      3  P   UNL     1      -1.002   2.508   2.433  1.00  0.00     0.469 P 
ATOM      4  O   UNL     1      -1.374   3.863   1.966  1.00  0.00    -0.228 OA
BRANCH   3   5
ATOM      5  O   UNL     1       0.576   2.279   2.210  1.00  0.00    -0.303 OA
ATOM      6  H   UNL     1       0.788   1.679   1.482  1.00  0.00     0.223 HD
ENDBRANCH   3   5
BRANCH   3   7
ATOM      7  O   UNL     1      -1.349   2.365   3.997  1.00  0.00    -0.303 OA
ATOM      8  H   UNL     1      -0.677   2.737   4.585  1.00  0.00     0.223 HD
ENDBRANCH   3   7
ENDBRANCH   2   3
ENDBRANCH   1   2
BRANCH   1   9
ATOM      9  C   UNL     1      -0.890  -0.594   0.617  1.00  0.00     0.179 C 
ATOM     10  O   UNL     1       0.483  -0.601   1.042  1.00  0.00    -0.347 OA
ATOM     11  C   UNL     1      -1.723  -1.227   1.748  1.00  0.00     0.179 C 
ATOM     12  C   UNL     1       0.629  -1.692   1.976  1.00  0.00     0.253 C 
ATOM     13  C   UNL     1      -0.674  -1.631   2.813  1.00  0.00     0.195 C 
BRANCH  11  14
ATOM     14  O   UNL     1      -2.421  -2.380   1.271  1.00  0.00    -0.387 OA
ATOM     15  H   UNL     1      -3.195  -2.618   1.799  1.00  0.00     0.211 HD
ENDBRANCH  11  14
BRANCH  12  16
ATOM     16  N   UNL     1       1.801  -1.486   2.831  1.00  0.00    -0.285 N 
ATOM     17  C   UNL     1       2.992  -2.142   2.737  1.00  0.00     0.204 A 
ATOM     18  C   UNL     1       1.902  -0.594   3.868  1.00  0.00     0.167 A 
ATOM     19  N   UNL     1       3.810  -1.710   3.654  1.00  0.00    -0.231 NA
ATOM     20  C   UNL     1       3.197  -0.754   4.391  1.00  0.00     0.150 A 
ATOM     21  N   UNL     1       1.085   0.292   4.428  1.00  0.00    -0.216 NA
ATOM     22  C   UNL     1       3.575   0.046   5.484  1.00  0.00     0.155 A 
ATOM     23  C   UNL     1       1.483   1.020   5.450  1.00  0.00     0.226 A 
ATOM     24  N   UNL     1       2.690   0.909   5.972  1.00  0.00    -0.217 NA
BRANCH  22  25
ATOM     25  N   UNL     1       4.838  -0.062   6.037  1.00  0.00    -0.382 N 
ATOM     26  H   UNL     1       5.042   0.390   6.871  1.00  0.00     0.158 HD
ATOM     27  H   UNL     1       5.521  -0.588   5.591  1.00  0.00     0.158 HD
ENDBRANCH  22  25
ENDBRANCH  12  16
BRANCH  13  28
ATOM     28  O   UNL     1      -0.983  -2.908   3.374  1.00  0.00    -0.386 OA
ATOM     29  H   UNL     1      -1.760  -2.908   3.948  1.00  0.00     0.211 HD
ENDBRANCH  13  28
ENDBRANCH   1   9
TORSDOF 9
ENDMDL
MODEL 9
REMARK VINA RESULT:     0.001      9.252     11.529
REMARK INTER + INTRA:          -1.230
REMARK INTER:                   0.000
REMARK INTRA:                  -1.230
REMARK UNBOUND:                -1.231
REMARK SMILES Nc1ncnc2c1ncn2C1OC(COP(=O)(O)O)C(O)C1O
REMARK SMILES IDX 14 1 15 2 16 3 17 4 18 5 19 7 13 9 12 10 20 11 11 12 22 13
REMARK SMILES IDX 21 14 10 16 9 17 6 18 8 19 7 20 5 21 2 22 4 23 3 24 1 25
REMARK SMILES IDX 23 28
REMARK H PARENT 18 6 19 8 21 15 1 26 1 27 23 29
REMARK Flexibility Score: inf
ROOT
ATOM      1  C   UNL     1      -2.765  -0.123  -2.195  1.00  0.00     0.208 C 
ENDROOT
BRANCH   1   2
ATOM      2  O   UNL     1      -3.545   0.806  -1.440  1.00  0.00    -0.284 OA
BRANCH   2   3
ATOM      3  P   UNL     1      -5.150   0.893  -1.548  1.00  0.00     0.469 P 
ATOM      4  O   UNL     1      -5.762  -0.027  -0.563  1.00  0.00    -0.228 OA
BRANCH   3   5
ATOM      5  O   UNL     1      -5.611   0.474  -3.033  1.00  0.00    -0.303 OA
ATOM      6  H   UNL     1      -6.055   1.180  -3.521  1.00  0.00     0.223 HD
ENDBRANCH   3   5
BRANCH   3   7
ATOM      7  O   UNL     1      -5.627   2.400  -1.245  1.00  0.00    -0.303 OA
ATOM      8  H   UNL     1      -5.485   3.014  -1.978  1.00  0.00     0.223 HD
ENDBRANCH   3   7
ENDBRANCH   2   3
ENDBRANCH   1   2
BRANCH   1   9
ATOM      9  C   UNL     1      -2.028   0.620  -3.310  1.00  0.00     0.179 C 
ATOM     10  O   UNL     1      -2.866   0.714  -4.473  1.00  0.00    -0.347 OA
ATOM     11  C   UNL     1      -1.705   2.058  -2.859  1.00  0.00     0.179 C 
ATOM     12  C   UNL     1      -2.568   1.976  -5.107  1.00  0.00     0.253 C 
ATOM     13  C   UNL     1      -2.403   2.952  -3.914  1.00  0.00     0.195 C 
BRANCH  11  14
ATOM     14  O   UNL     1      -0.294   2.281  -2.869  1.00  0.00    -0.387 OA
ATOM     15  H   UNL     1       0.012   2.895  -2.188  1.00  0.00     0.211 HD
ENDBRANCH  11  14
BRANCH  12  16
ATOM     16  N   UNL     1      -3.676   2.398  -5.968  1.00  0.00    -0.285 N 
ATOM     17  C   UNL     1      -3.700   2.355  -7.330  1.00  0.00     0.204 A 
ATOM     18  C   UNL     1      -4.882   2.901  -5.550  1.00  0.00     0.167 A 
ATOM     19  N   UNL     1      -4.840   2.804  -7.768  1.00  0.00    -0.231 NA
ATOM     20  C   UNL     1      -5.617   3.164  -6.719  1.00  0.00     0.150 A 
ATOM     21  N   UNL     1      -5.426   3.177  -4.369  1.00  0.00    -0.216 NA
ATOM     22  C   UNL     1      -6.910   3.698  -6.583  1.00  0.00     0.155 A 
ATOM     23  C   UNL     1      -6.642   3.676  -4.291  1.00  0.00     0.226 A 
ATOM     24  N   UNL     1      -7.372   3.935  -5.359  1.00  0.00    -0.217 NA
BRANCH  22  25
ATOM     25  N   UNL     1      -7.684   3.972  -7.697  1.00  0.00    -0.382 N 
ATOM     26  H   UNL     1      -8.544   4.410  -7.594  1.00  0.00     0.158 HD
ATOM     27  H   UNL     1      -7.369   3.724  -8.580  1.00  0.00     0.158 HD
ENDBRANCH  22  25
ENDBRANCH  12  16
BRANCH  13  28
ATOM     28  O   UNL     1      -1.575   4.061  -4.270  1.00  0.00    -0.386 OA
ATOM     29  H   UNL     1      -0.981   3.886  -5.012  1.00  0.00     0.211 HD
ENDBRANCH  13  28
ENDBRANCH   1   9
TORSDOF 9
ENDMDL
